Circuit: * C:\Users\dhaff\Pictures\LTspc CCD circuit\Draft6.asc

Fatal Error: Unknown subcircuit called in:
   xu1 0 n002 s1
