Circuit: * C:\Users\dhaff\Pictures\ATmega 1284 chip\dave allmon design feb20\LTspice circuits feb 2017\LED test circuit 3 feb27.asc

.dc: Increment so large that there's only one step.

Date: Mon Feb 27 19:50:17 2017
Total elapsed time: 0.049 seconds.

tnom = 27
temp = 27
method = trap
totiter = 9
traniter = 0
tranpoints = 0
accept = 0
rejected = 0
matrix size = 4
fillins = 0
solver = Normal
Matrix Compiler1: 100 bytes object code size
Matrix Compiler2: 248 bytes object code size

