Circuit: * C:\Users\dhaff\Pictures\LTspc CCD circuit\LED test circuit feb27.asc

.OP point found by inspection.

Date: Mon Feb 27 12:51:15 2017
Total elapsed time: 0.074 seconds.

tnom = 27
temp = 27
method = modified trap
totiter = 580
traniter = 580
tranpoints = 286
accept = 286
rejected = 0
matrix size = 3
fillins = 0
solver = Normal
Matrix Compiler1: 50 bytes object code size  0.8/0.1/[0.1]
Matrix Compiler2: 175 bytes object code size  0.1/0.1/[0.1]


