Circuit: * C:\Users\dhaff\Pictures\LTspc CCD circuit\SIM2 debouncer S1.asc

Fatal Error: Unknown subcircuit called in:
   xu1 0 n002
